
 *******************************************************************************

         NASA-GLENN CHEMICAL EQUILIBRIUM PROGRAM CEA2, MAY 21, 2004
                   BY  BONNIE MCBRIDE AND SANFORD GORDON
      REFS: NASA RP-1311, PART I, 1994 AND NASA RP-1311, PART II, 1996

 *******************************************************************************



 prob
 	case=tmp.inp rocket frozen nfz=2 tcest,k=3800 p,bar=16.907 sup,ae/at=1.0
 react
 	name=O2(L) wt=66.56902816308424 t,k=90
 	name=CurableResin wt=23.430971836915756 t,k=90 h,kj/mol=-296.9636 C 16.0873 H 2
 0.6143 O 3.96810
 	name=N2 wt=10.0 t,k=280
 output	transport
 end

 OPTIONS: TP=F  HP=F  SP=F  TV=F  UV=F  SV=F  DETN=F  SHOCK=F  REFL=F  INCD=F
 RKT=T  FROZ=T  EQL=F  IONS=F  SIUNIT=T  DEBUGF=F  SHKDBG=F  DETDBG=F  TRNSPT=T

 TRACE= 0.00E+00  S/R= 0.000000E+00  H/R= 0.000000E+00  U/R= 0.000000E+00

 Pc,BAR =    16.907000

 Pc/P =

 SUBSONIC AREA RATIOS =

 SUPERSONIC AREA RATIOS =     1.0000

 NFZ=  2  Mdot/Ac= 0.000000E+00  Ac/At= 0.000000E+00

    REACTANT          WT.FRAC   (ENERGY/R),K   TEMP,K  DENSITY
        EXPLODED FORMULA
 N: O2(L)            0.665690  -0.156101E+04    90.00  0.0000
          O  2.00000
 N: CurableResin     0.234310  -0.357163E+05    90.00  0.0000
          C 16.08730  H 20.61430  O  3.96810
 N: N2               0.100000  -0.635687E+02   280.00  0.0000
          N  2.00000

  SPECIES BEING CONSIDERED IN THIS SYSTEM
 (CONDENSED PHASE MAY HAVE NAME LISTED SEVERAL TIMES)
  LAST thermo.inp UPDATE:    9/09/04

  g 7/97  *C               tpis79  *CH              g 4/02  CH2            
  g 4/02  CH3              g11/00  CH2OH            g 7/00  CH3O           
  g 8/99  CH4              g 7/00  CH3OH            srd 01  CH3OOH         
  g 8/99  *CN              g12/99  CNN              tpis79  *CO            
  g 9/99  *CO2             tpis91  COOH             tpis91  *C2            
  g 6/01  C2H              g 1/91  C2H2,acetylene   g 5/01  C2H2,vinylidene
  g 4/02  CH2CO,ketene     g 3/02  O(CH)2O          srd 01  HO(CO)2OH      
  g 7/01  C2H3,vinyl       g 9/00  CH3CN            g 6/96  CH3CO,acetyl   
  g 1/00  C2H4             g 8/88  C2H4O,ethylen-o  g 8/88  CH3CHO,ethanal 
  g 6/00  CH3COOH          srd 01  OHCH2COOH        g 7/00  C2H5           
  g 7/00  C2H6             g 8/88  CH3N2CH3         g 8/88  C2H5OH         
  g 7/00  CH3OCH3          srd 01  CH3O2CH3         g 7/00  CCN            
  tpis91  CNC              srd 01  OCCN             tpis79  C2N2           
  g 8/00  C2O              tpis79  *C3              n 4/98  C3H3,1-propynl 
  n 4/98  C3H3,2-propynl   g 2/00  C3H4,allene      g 1/00  C3H4,propyne   
  g 5/90  C3H4,cyclo-      g 3/01  C3H5,allyl       g 2/00  C3H6,propylene 
  g 1/00  C3H6,cyclo-      g 6/01  C3H6O,propylox   g 6/97  C3H6O,acetone  
  g 1/02  C3H6O,propanal   g 7/01  C3H7,n-propyl    g 9/85  C3H7,i-propyl  
  g 2/00  C3H8             g 2/00  C3H8O,1propanol  g 2/00  C3H8O,2propanol
  srd 01  CNCOCN           g 7/88  C3O2             g tpis  *C4            
  g 7/01  C4H2,butadiyne   g 8/00  C4H4,1,3-cyclo-  n10/92  C4H6,butadiene 
  n10/93  C4H6,1butyne     n10/93  C4H6,2butyne     g 8/00  C4H6,cyclo-    
  n 4/88  C4H8,1-butene    n 4/88  C4H8,cis2-buten  n 4/88  C4H8,tr2-butene
  n 4/88  C4H8,isobutene   g 8/00  C4H8,cyclo-      g10/00  (CH3COOH)2     
  n10/84  C4H9,n-butyl     n10/84  C4H9,i-butyl     g 1/93  C4H9,s-butyl   
  g 1/93  C4H9,t-butyl     g12/00  C4H10,n-butane   g 8/00  C4H10,isobutane
  g 6/01  C4N2             g 8/00  *C5              g 5/90  C5H6,1,3cyclo- 
  g 1/93  C5H8,cyclo-      n 4/87  C5H10,1-pentene  g 2/01  C5H10,cyclo-   
  n10/84  C5H11,pentyl     g 1/93  C5H11,t-pentyl   n10/85  C5H12,n-pentane
  n10/85  C5H12,i-pentane  n10/85  CH3C(CH3)2CH3    g 2/93  C6H2           
  g11/00  C6H5,phenyl      g 8/00  C6H5O,phenoxy    g 8/00  C6H6           
  g 8/00  C6H5OH,phenol    g 1/93  C6H10,cyclo-     n 4/87  C6H12,1-hexene 
  g 6/90  C6H12,cyclo-     n10/83  C6H13,n-hexyl    g 6/01  C6H14,n-hexane 
  g 7/01  C7H7,benzyl      g 1/93  C7H8             g12/00  C7H8O,cresol-mx
  n 4/87  C7H14,1-heptene  n10/83  C7H15,n-heptyl   n10/85  C7H16,n-heptane
  n10/85  C7H16,2-methylh  n 4/89  C8H8,styrene     n10/86  C8H10,ethylbenz
  n 4/87  C8H16,1-octene   n10/83  C8H17,n-octyl    n 4/85  C8H18,n-octane 
  n 4/85  C8H18,isooctane  n10/83  C9H19,n-nonyl    g 3/01  C10H8,naphthale
  n10/83  C10H21,n-decyl   g 8/00  C12H9,o-bipheny  g 8/00  C12H10,biphenyl
  g 6/97  *H               g 6/01  HCN              g 1/01  HCO            
  tpis89  HCCN             g 6/01  HCCO             g 6/01  HNC            
  g 7/00  HNCO             g10/01  HNO              tpis89  HNO2           
  g 5/99  HNO3             g 4/02  HO2              tpis78  *H2            
  g 5/01  HCHO,formaldehy  g 6/01  HCOOH            g 8/89  H2O            
  g 6/99  H2O2             g 6/01  (HCOOH)2         g 5/97  *N             
  g 6/01  NCO              g 4/99  *NH              g 3/01  NH2            
  tpis89  NH3              tpis89  NH2OH            tpis89  *NO            
  g 4/99  NO2              j12/64  NO3              tpis78  *N2            
  g 6/01  NCN              g 5/99  N2H2             tpis89  NH2NO2         
  g 4/99  N2H4             g 4/99  N2O              g 4/99  N2O3           
  tpis89  N2O4             g 4/99  N2O5             tpis89  N3             
  g 4/99  N3H              g 5/97  *O               g 4/02  *OH            
  tpis89  *O2              g 8/01  O3               n 4/83  C(gr)          
  n 4/83  C(gr)            n 4/83  C(gr)            g11/99  H2O(cr)        
  g 8/01  H2O(L)           g 8/01  H2O(L)         

 SPECIES WITH TRANSPORT PROPERTIES

        PURE SPECIES


     BINARY INTERACTIONS



 O/F =   0.000000

                       EFFECTIVE FUEL     EFFECTIVE OXIDANT        MIXTURE
 ENTHALPY                  h(2)/R              h(1)/R               h0/R
 (KG-MOL)(K)/KG       -0.62860505E+02      0.00000000E+00     -0.62860505E+02

 KG-FORM.WT./KG             bi(2)               bi(1)               b0i
  *O                   0.44957887E-01      0.00000000E+00      0.44957887E-01
  *C                   0.13584200E-01      0.00000000E+00      0.13584200E-01
  *H                   0.17406822E-01      0.00000000E+00      0.17406822E-01
  *N                   0.71394404E-02      0.00000000E+00      0.71394404E-02

 POINT ITN      T            O           C           H           N 

   1   25    3340.374     -14.831     -17.810     -11.322     -14.171

 Pinf/Pt = 1.723695
   2    3    3195.829     -15.016     -18.276     -11.559     -14.344

 Pinf/Pt = 1.721143
   2    2    3196.209     -15.016     -18.275     -11.559     -14.344






           THEORETICAL ROCKET PERFORMANCE ASSUMING FROZEN COMPOSITION
                                 AFTER POINT 2

 Pin =   245.2 PSIA
 CASE = tmp.inp        

             REACTANT                    WT FRACTION      ENERGY      TEMP
                                          (SEE NOTE)     KJ/KG-MOL      K  
 NAME        O2(L)                        0.6656903    -12979.000     90.000
 NAME        CurableResin                 0.2343097   -296963.600     90.000
 NAME        N2                           0.1000000      -528.542    280.000

 O/F=    0.00000  %FUEL=  0.000000  R,EQ.RATIO= 0.797898  PHI,EQ.RATIO= 0.000000

                 CHAMBER   THROAT     EXIT
 Pinf/P            1.0000   1.7211   1.7211
 P, BAR            16.907   9.8231   9.8231
 T, K             3340.37  3196.21  3196.21
 RHO, KG/CU M    1.7557 0 1.0811 0 1.0811 0
 H, KJ/KG         -522.65 -1030.57 -1030.57
 U, KJ/KG        -1485.62 -1939.17 -1939.17
 G, KJ/KG        -33522.0 -32605.7 -32605.7
 S, KJ/(KG)(K)     9.8789   9.8789   9.8789

 M, (1/n)          28.842   29.248   29.248
 Cp, KJ/(KG)(K)    6.5006   6.4875   1.6389
 GAMMAs            1.1218   1.1180   1.2099
 SON VEL,M/SEC     1039.3   1007.9   1048.5
 MACH NUMBER        0.000    1.000    0.961

 TRANSPORT PROPERTIES (GASES ONLY)
   CONDUCTIVITY IN UNITS OF MILLIWATTS/(CM)(K)

 VISC,MILLIPOISE   1.0685   1.0360   1.0360

  WITH FROZEN REACTIONS

 Cp, KJ/(KG)(K)    1.6432   1.6389   1.6389
 CONDUCTIVITY      2.7480   2.6399   2.6399
 PRANDTL NUMBER    0.6389   0.6431   0.6431

 PERFORMANCE PARAMETERS

 Ae/At                      1.0000   1.0000
 CSTAR, M/SEC               1551.6   1551.6
 CF                         0.6496   0.6496
 Ivac, M/SEC                1909.4   1909.4
 Isp, M/SEC                 1007.9   1007.9

 MOLE FRACTIONS

 *CO             0.13290   *CO2            0.26440   *H              0.01020
 HO2             0.00013   *H2             0.01316   H2O             0.20368
 H2O2            0.00001   *NO             0.01859   NO2             0.00003
 *N2             0.09509   *O              0.02791   *OH             0.06508
 *O2             0.16881

  * THERMODYNAMIC PROPERTIES FITTED TO 20000.K

    PRODUCTS WHICH WERE CONSIDERED BUT WHOSE MOLE FRACTIONS
    WERE LESS THAN 5.000000E-06 FOR ALL ASSIGNED CONDITIONS



 NOTE. WEIGHT FRACTION OF FUEL IN TOTAL FUELS AND OF OXIDANT IN TOTAL OXIDANTS



